
*** ChampSim Multicore Out-of-Order Simulator ***

Warmup Instructions: 1000000
Simulation Instructions: 10000000
Number of CPUs: 1
LLC sets: 2048
LLC ways: 16
Off-chip DRAM Size: 4096 MB Channels: 1 Width: 64-bit Data Rate: 1600 MT/s

CPU 0 runs /home/guilf031/Documents/EE-5364-Term-Project/tracer/400.perlbench-41B.champsimtrace.xz
CPU 0 Bimodal branch predictor
Caught signal: 2
